*SPEF "1481-1998"
*DESIGN "Johnson_count"
*DATE "Mon Feb 17 12:52:05 2014"
*VENDOR "Synopsys, Inc."
*PROGRAM "icc_shell"
*VERSION "H-2013.03-ICC-SP5-2"
*DESIGN_FLOW "PIN_CAP NONE"
*DIVIDER /
*DELIMITER :
*BUS_DELIMITER [ ]
*T_UNIT 1 NS
*C_UNIT 1 FF
*R_UNIT 1 OHM
*L_UNIT 1 HENRY

*NAME_MAP
*1 out[4]
*2 out[3]
*3 out[2]
*4 out[1]
*5 out[0]
*6 VDD
*7 VSS
*8 SCANOUTPORT
*9 r
*10 clk
*11 SE
*12 SCANINPORT
*13 out[7]
*14 out[6]
*15 out[5]
*16 U1
*17 out_reg\[7\]
*18 n25
*19 out_reg\[1\]
*20 U9
*21 out_reg\[2\]
*22 out_reg\[3\]
*23 out_reg\[4\]
*24 out_reg\[5\]
*25 out_reg\[6\]
*26 out_reg\[0\]
*27 n8
*28 U10
*29 n21
*30 n20
*31 U5
*32 n10
*33 U3
*34 n1
*35 U4
*36 n6
*37 U2
*38 n7
*39 U6
*40 n9
*41 U7
*42 n11
*43 U8
*44 n16
*45 n17
*46 n18
*47 n19
*48 n22
*49 n23
*50 n24

*PORTS
*1 O *L 4.0 *S 0.0 0.0
*2 O *L 4.0 *S 0.0 0.0
*3 O *L 4.0 *S 0.0 0.0
*4 O *L 4.0 *S 0.0 0.0
*5 O *L 4.0 *S 0.0 0.0
*6 I *L 0.0 *S 0.0 0.0
*7 I *L 0.0 *S 0.0 0.0
*8 O *L 0.0 *S 0.0 0.0
*9 I *L 0.0 *S 0.0 0.0
*10 I *L 0.0 *S 0.0 0.0
*11 I *L 0.0 *S 0.0 0.0
*12 I *L 0.0 *S 0.0 0.0
*13 O *L 4.0 *S 0.0 0.0
*14 O *L 4.0 *S 0.0 0.0
*15 O *L 4.0 *S 0.0 0.0

*D_NET *13 7.130988

*CONN
*I *16:INP I *L 1260.573 *C 5.17 8.36
*I *17:Q O *L 0.0 *D SDFFARX1 *C 18.12 13.16
*P *13 O *C 30.92 30.72
*N *13:4 *C 5.17 8.36
*N *13:5 *C 5.17 3.24
*N *13:6 *C 5.17 3.24
*N *13:7 *C 9.65 3.24
*N *13:8 *C 9.65 3.24
*N *13:9 *C 9.95 14.12
*N *13:10 *C 9.95 14.12
*N *13:11 *C 17.33 14.12
*N *13:12 *C 17.33 14.12
*N *13:13 *C 30.77 29.16
*N *13:14 *C 30.77 29.16
*N *13:15 *C 17.63 29.16
*N *13:16 *C 17.63 29.16
*N *13:17 *C 18.12 13.16
*N *13:18 *C 18.12 14.12

*CAP
1 *16:INP 0.04541841
2 *17:Q 0.0
3 *13 0.1054582
4 *13:4 0.5335929
5 *13:5 0.4780169
6 *13:6 0.308381
7 *13:7 0.6159475
8 *13:8 0.308381
9 *13:9 0.6159475
10 *13:10 0.4055468
11 *13:11 0.7939704
12 *13:12 0.4055468
13 *13:13 0.09530071
14 *13:14 0.7505164
15 *13:15 0.7544393
16 *13:16 0.7505164
17 *13:17 0.06223818
18 *13:18 0.1017694

*RES
1 *13:4 *16:INP 0.45
2 *13:5 *13:6 0.45
3 *13:7 *13:8 0.45
4 *13:9 *13:10 0.45
5 *13:11 *13:12 0.45
6 *13:13 *13:14 0.45
7 *13:15 *13:16 0.45
8 *13:17 *17:Q 0.9
9 *13:6 *13:8 3.227144
10 *13:10 *13:12 5.09143
11 *13:16 *13:14 8.794288
12 *13:5 *13:4 2.745
13 *13:7 *13:9 5.985001
14 *13:11 *13:15 8.381249
15 *13:11 *13:18 0.4050001
16 *13:17 *13:18 0.45
17 *13:13 *13 0.765

*END

*D_NET *18 0.8368385

*CONN
*I *19:SI I *L 1828.496 *C 20.51 6.12
*I *20:Z O *L 0.0 *D NBUFFX2 *C 20.475 10.23
*N *18:3 *C 20.51 6.12
*N *18:4 *C 20.475 10.23

*CAP
1 *19:SI 0.0
2 *20:Z 0.04328541
3 *18:3 0.3700551
4 *18:4 0.423498

*RES
1 *18:3 *19:SI 0.45
2 *18:4 *20:Z 0.45
3 *18:3 *18:4 2.176875

*END

*D_NET *4 4.028525

*CONN
*I *19:Q O *L 0.0 *D SDFFARX1 *C 30.92 6.12
*I *21:D I *L 1419.717 *C 7.905 5.16
*P *4 O *C 30.92 0.08
*N *4:4 *C 7.905 5.16
*N *4:5 *C 8.03 1.96
*N *4:6 *C 8.03 1.96
*N *4:7 *C 30.77 1.96
*N *4:8 *C 30.77 1.96
*N *4:9 *C 30.92 6.12

*CAP
1 *19:Q 0.0
2 *21:D 0.0
3 *4 0.08960844
4 *4:4 0.2622481
5 *4:5 0.2622481
6 *4:6 1.387509
7 *4:7 0.3645057
8 *4:8 1.387509
9 *4:9 0.2748973

*RES
1 *4:4 *21:D 0.45
2 *4:5 *4:6 0.45
3 *4:7 *4:8 0.45
4 *4:9 *19:Q 0.45
5 *4:6 *4:8 14.96572
6 *4:5 *4:4 1.665
7 *4 *4:7 1.0125
8 *4:7 *4:9 2.210625

*END

*D_NET *10 13.7326

*CONN
*I *19:CLK I *L 1291.831 *C 21.96 5.48
*I *21:CLK I *L 1291.831 *C 8.84 5.48
*I *22:CLK I *L 1291.831 *C 12.04 11.24
*I *23:CLK I *L 1291.831 *C 6.6 19.56
*I *24:CLK I *L 1291.831 *C 27.72 19.56
*I *25:CLK I *L 1291.831 *C 20.68 25.32
*I *26:CLK I *L 1291.831 *C 5.64 25.32
*I *17:CLK I *L 1291.831 *C 27.08 13.8
*P *10 I *C 0.35 28.84
*N *10:10 *C 12.04 11.24
*N *10:11 *C 11.89 9.32
*N *10:12 *C 11.89 9.32
*N *10:13 *C 8.67 9.32
*N *10:14 *C 8.67 9.32
*N *10:15 *C 6.6 16.51
*N *10:16 *C 6.6 16.51
*N *10:17 *C 8.37 16.36
*N *10:18 *C 8.37 16.36
*N *10:19 *C 20.04 27.24
*N *10:20 *C 20.04 27.24
*N *10:21 *C 8.84 5.48
*N *10:22 *C 25.97 22.12
*N *10:23 *C 25.97 22.12
*N *10:24 *C 20.51 22.12
*N *10:25 *C 20.51 22.12
*N *10:26 *C 5.79 27.24
*N *10:27 *C 5.79 27.24
*N *10:28 *C 5.49 25.0
*N *10:29 *C 5.49 25.0
*N *10:30 *C 5.49 25.0
*N *10:31 *C 5.79 25.0
*N *10:32 *C 6.45 25.0
*N *10:33 *C 6.45 25.0
*N *10:34 *C 6.6 24.85
*N *10:35 *C 6.6 24.85
*N *10:36 *C 0.35 28.84
*N *10:37 *C 0.35 27.24
*N *10:38 *C 0.35 27.24
*N *10:39 *C 5.64 25.32
*N *10:40 *C 6.6 19.56
*N *10:41 *C 20.68 25.32
*N *10:42 *C 27.08 13.8
*N *10:43 *C 27.72 19.56
*N *10:44 *C 25.97 7.72
*N *10:45 *C 25.97 7.72
*N *10:46 *C 22.11 7.72
*N *10:47 *C 22.11 7.72
*N *10:48 *C 21.96 5.48
*N *10:49 *C 8.52 5.48
*N *10:50 *C 20.04 25.32
*N *10:51 *C 20.36 25.32
*N *10:52 *C 26.12 16.04
*N *10:53 *C 27.08 16.04
*N *10:54 *C 27.4 16.04
*N *10:55 *C 27.4 19.56

*CAP
1 *19:CLK 0.0
2 *21:CLK 0.0
3 *22:CLK 0.0
4 *23:CLK 0.0
5 *24:CLK 0.0
6 *25:CLK 0.0
7 *26:CLK 0.0
8 *17:CLK 0.0
9 *10 0.02663876
10 *10:10 0.1434681
11 *10:11 0.1383893
12 *10:12 0.2966968
13 *10:13 0.6167178
14 *10:14 0.2966968
15 *10:15 0.2706574
16 *10:16 0.1395977
17 *10:17 0.425031
18 *10:18 0.1395977
19 *10:19 0.1428545
20 *10:20 1.197569
21 *10:21 0.04576217
22 *10:22 0.3081373
23 *10:23 0.3280094
24 *10:24 0.2564703
25 *10:25 0.3280094
26 *10:26 0.1768841
27 *10:27 1.659385
28 *10:28 0.03196432
29 *10:29 0.05428453
30 *10:30 0.0730065
31 *10:31 0.09227807
32 *10:32 0.05093141
33 *10:33 0.05807116
34 *10:34 0.09753808
35 *10:35 0.3584082
36 *10:36 0.1623438
37 *10:37 0.1255475
38 *10:38 0.4516577
39 *10:39 0.2477155
40 *10:40 0.6065805
41 *10:41 0.03468562
42 *10:42 0.1166015
43 *10:43 0.03187149
44 *10:44 0.6463903
45 *10:45 0.3610426
46 *10:46 0.2055098
47 *10:47 0.3610426
48 *10:48 0.2105885
49 *10:49 0.2425277
50 *10:50 0.1699411
51 *10:51 0.3233214
52 *10:52 1.035738
53 *10:53 0.2102555
54 *10:54 0.213457
55 *10:55 0.2227276

*RES
1 *10:10 *22:CLK 0.9
2 *10:11 *10:12 0.45
3 *10:13 *10:14 0.45
4 *10:15 *10:16 0.45
5 *10:17 *10:18 0.45
6 *10:19 *10:20 0.45
7 *10:21 *21:CLK 0.9
8 *10:22 *10:23 0.45
9 *10:24 *10:25 0.45
10 *10:26 *10:27 0.45
11 *10:28 *10:29 0.45
12 *10:30 *10:28 0.45
13 *10:31 *10:30 0.45
14 *10:32 *10:33 0.45
15 *10:33 *10:34 0.45
16 *10:34 *10:35 0.45
17 *10 *10:36 0.45
18 *10:37 *10:38 0.45
19 *10:39 *26:CLK 0.9
20 *10:40 *23:CLK 0.9
21 *10:41 *25:CLK 0.9
22 *10:42 *17:CLK 0.9
23 *10:43 *24:CLK 0.9
24 *10:44 *10:45 0.45
25 *10:46 *10:47 0.45
26 *10:48 *19:CLK 0.9
27 *10:38 *10:27 3.670715
28 *10:27 *10:20 9.334289
29 *10:16 *10:18 1.234286
30 *10:14 *10:12 2.417143
31 *10:25 *10:23 3.857143
32 *10:47 *10:45 2.828572
33 *10:37 *10:36 0.765
34 *10:29 *10:39 0.1125
35 *10:39 *10:26 1.0125
36 *10:15 *10:40 1.8675
37 *10:40 *10:35 3.1275
38 *10:49 *10:21 0.18
39 *10:49 *10:13 2.115
40 *10:13 *10:17 3.8925
41 *10:11 *10:10 1.08
42 *10:50 *10:19 1.0575
43 *10:50 *10:51 0.135
44 *10:51 *10:41 0.135
45 *10:24 *10:51 1.6875
46 *10:48 *10:46 1.26
47 *10:44 *10:52 4.6125
48 *10:52 *10:22 3.3525
49 *10:52 *10:53 0.4950001
50 *10:53 *10:54 0.225
51 *10:42 *10:53 1.2825
52 *10:54 *10:55 1.98
53 *10:55 *10:43 0.09000001
54 *10:31 *10:32 0.675

*END

*D_NET *27 11.00853

*CONN
*I *28:ZN O *L 0.0 *D INVX0 *C 6.79 14.12
*I *19:RSTB I *L 3539.856 *C 26.76 4.2
*I *21:RSTB I *L 3539.856 *C 15.88 4.84
*I *22:RSTB I *L 3539.856 *C 6.0 10.0
*I *23:RSTB I *L 3539.856 *C 12.68 20.855
*I *24:RSTB I *L 3539.856 *C 22.92 20.84
*I *25:RSTB I *L 3539.856 *C 23.355 26.33
*I *26:RSTB I *L 3539.856 *C 11.87 26.41
*I *17:RSTB I *L 3539.856 *C 24.405 14.81
*N *27:10 *C 6.0 10.0
*N *27:11 *C 15.88 4.84
*N *27:12 *C 15.73 13.48
*N *27:13 *C 15.73 13.48
*N *27:14 *C 12.83 13.48
*N *27:15 *C 12.83 13.48
*N *27:16 *C 12.68 20.855
*N *27:17 *C 22.77 20.52
*N *27:18 *C 22.77 20.52
*N *27:19 *C 23.07 20.52
*N *27:20 *C 22.92 20.67
*N *27:21 *C 23.56 26.28
*N *27:22 *C 23.56 26.28
*N *27:23 *C 7.07 20.52
*N *27:24 *C 7.07 20.52
*N *27:25 *C 6.92 20.37
*N *27:26 *C 6.92 20.37
*N *27:27 *C 24.2 14.76
*N *27:28 *C 24.2 14.76
*N *27:29 *C 26.76 4.2
*N *27:30 *C 26.44 13.97
*N *27:31 *C 26.44 13.97
*N *27:32 *C 26.29 14.12
*N *27:33 *C 25.16 14.12
*N *27:34 *C 25.16 14.12
*N *27:35 *C 24.84 14.12
*N *27:36 *C 24.84 14.12
*N *27:37 *C 11.4 20.67
*N *27:38 *C 11.4 20.67
*N *27:39 *C 11.25 20.52
*N *27:40 *C 11.25 20.52
*N *27:41 *C 11.87 26.41
*N *27:42 *C 6.79 14.12
*N *27:43 *C 6.28 10.0
*N *27:44 *C 6.28 11.88
*N *27:45 *C 6.6 11.88
*N *27:46 *C 6.6 14.12
*N *27:47 *C 6.92 14.12
*N *27:48 *C 11.4 26.6
*N *27:49 *C 23.56 20.52
*N *27:50 *C 24.52 20.52
*N *27:51 *C 24.84 14.76
*N *27:52 *C 24.2 17.64
*N *27:53 *C 24.52 17.64
*N *27:54 *C 26.44 4.2

*CAP
1 *28:ZN 0.0
2 *19:RSTB 0.0
3 *21:RSTB 0.03541123
4 *22:RSTB 0.0
5 *23:RSTB 0.0
6 *24:RSTB 0.0
7 *25:RSTB 0.02747479
8 *26:RSTB 0.0
9 *17:RSTB 0.03035675
10 *27:10 0.03811937
11 *27:11 0.555987
12 *27:12 0.5104182
13 *27:13 0.1860239
14 *27:14 0.4634812
15 *27:15 0.1860239
16 *27:16 0.4634812
17 *27:17 0.5033808
18 *27:18 0.02882792
19 *27:19 0.1046443
20 *27:20 0.1537569
21 *27:21 0.2975055
22 *27:22 0.02747479
23 *27:23 0.1869012
24 *27:24 0.05722635
25 *27:25 0.09583566
26 *27:26 0.5078349
27 *27:27 0.2057027
28 *27:28 0.03035675
29 *27:29 0.02714125
30 *27:30 0.05786527
31 *27:31 0.7312204
32 *27:32 0.1661449
33 *27:33 0.1023281
34 *27:34 0.05404961
35 *27:35 0.0542671
36 *27:36 0.03265299
37 *27:37 0.05720832
38 *27:38 0.513078
39 *27:39 0.09767292
40 *27:40 0.7432587
41 *27:41 0.05336336
42 *27:42 0.5725297
43 *27:43 0.1624013
44 *27:44 0.1395143
45 *27:45 0.1019136
46 *27:46 0.01189527
47 *27:47 0.008060902
48 *27:48 0.5816778
49 *27:49 0.4530826
50 *27:50 0.3004476
51 *27:51 0.08592478
52 *27:52 0.1797712
53 *27:53 0.249931
54 *27:54 0.7749085

*RES
1 *27:10 *22:RSTB 0.9
2 *27:11 *21:RSTB 0.9
3 *27:12 *27:13 0.45
4 *27:14 *27:15 0.45
5 *27:16 *23:RSTB 0.45
6 *27:17 *27:18 0.45
7 *27:18 *27:19 0.45
8 *27:19 *27:20 0.45
9 *25:RSTB *27:22 0.06000001
10 *27:21 *27:22 0.9
11 *27:23 *27:24 0.45
12 *27:24 *27:25 0.45
13 *27:25 *27:26 0.45
14 *17:RSTB *27:28 0.06000001
15 *27:27 *27:28 0.9
16 *27:20 *24:RSTB 0.9
17 *27:29 *19:RSTB 0.9
18 *27:30 *27:31 0.45
19 *27:32 *27:30 0.45
20 *27:33 *27:34 0.9
21 *27:35 *27:36 0.9
22 *27:37 *27:38 0.45
23 *27:39 *27:37 0.45
24 *27:40 *27:39 0.45
25 *27:41 *26:RSTB 0.45
26 *27:38 *23:RSTB 0.9
27 *27:42 *28:ZN 0.45
28 *27:15 *27:13 2.211429
29 *27:10 *27:43 0.27
30 *27:43 *27:44 1.0575
31 *27:44 *27:45 0.18
32 *27:45 *27:42 1.172813
33 *27:42 *27:46 0.04500001
34 *27:42 *27:47 0.04500001
35 *27:42 *27:26 3.538125
36 *27:38 *27:48 3.5325
37 *27:48 *27:41 0.174375
38 *27:14 *27:16 4.013437
39 *27:11 *27:12 4.86
40 *27:20 *27:49 0.315
41 *27:49 *27:50 0.585
42 *27:49 *27:21 3.2625
43 *27:27 *27:51 0.4050001
44 *27:27 *27:52 1.65375
45 *27:52 *27:53 0.18
46 *27:53 *27:50 1.53
47 *27:36 *27:51 0.3825
48 *27:54 *27:31 5.6925
49 *27:54 *27:29 0.09
50 *27:35 *27:34 0.2025
51 *27:33 *27:32 0.5737501
52 *27:23 *27:40 2.503125
53 *27:40 *27:17 6.631876

*END

*D_NET *11 13.52684

*CONN
*I *19:SE I *L 2660.475 *C 20.04 5.48
*I *21:SE I *L 2660.475 *C 6.92 5.48
*I *22:SE I *L 2660.475 *C 13.96 11.24
*I *23:SE I *L 2660.475 *C 4.5 19.5
*I *24:SE I *L 2660.475 *C 29.64 19.56
*I *25:SE I *L 2660.475 *C 18.76 25.32
*I *26:SE I *L 2660.475 *C 3.72 25.32
*I *17:SE I *L 2660.475 *C 29.0 13.8
*P *11 I *C 6.6 30.72
*N *11:10 *C 7.07 7.4
*N *11:11 *C 7.07 7.4
*N *11:12 *C 13.81 7.4
*N *11:13 *C 13.81 7.4
*N *11:14 *C 4.04 5.63
*N *11:15 *C 4.04 5.63
*N *11:16 *C 4.04 5.48
*N *11:17 *C 4.19 5.48
*N *11:18 *C 6.77 5.48
*N *11:19 *C 6.77 5.48
*N *11:20 *C 6.77 5.48
*N *11:21 *C 6.77 5.48
*N *11:22 *C 18.76 25.32
*N *11:23 *C 18.61 27.88
*N *11:24 *C 18.61 27.88
*N *11:25 *C 14.11 3.24
*N *11:26 *C 14.11 3.24
*N *11:27 *C 19.89 3.24
*N *11:28 *C 19.89 3.24
*N *11:29 *C 3.72 25.32
*N *11:30 *C 4.5 19.5
*N *11:31 *C 4.19 27.88
*N *11:32 *C 4.19 27.88
*N *11:33 *C 28.85 8.36
*N *11:34 *C 28.85 8.36
*N *11:35 *C 20.04 8.21
*N *11:36 *C 20.04 8.21
*N *11:37 *C 6.75 27.88
*N *11:38 *C 6.75 27.88
*N *11:39 *C 29.0 13.8
*N *11:40 *C 29.64 19.56
*N *11:41 *C 29.64 13.33
*N *11:42 *C 29.64 13.33
*N *11:43 *C 29.0 13.33
*N *11:44 *C 29.0 13.33
*N *11:45 *C 13.96 11.24
*N *11:46 *C 6.92 5.48
*N *11:47 *C 20.04 5.48
*N *11:48 *C 4.04 25.32
*N *11:49 *C 4.36 25.32
*N *11:50 *C 4.04 17.0
*N *11:51 *C 4.36 17.0
*N *11:52 *C 4.04 19.5
*N *11:53 *C 4.04 24.04
*N *11:54 *C 4.36 19.5
*N *11:55 *C 4.36 24.04

*CAP
1 *19:SE 0.0
2 *21:SE 0.0
3 *22:SE 0.0
4 *23:SE 0.0
5 *24:SE 0.0
6 *25:SE 0.0
7 *26:SE 0.0
8 *17:SE 0.0
9 *11 0.1690175
10 *11:10 0.1827081
11 *11:11 0.4051561
12 *11:12 0.5697491
13 *11:13 0.4051561
14 *11:14 0.03042909
15 *11:15 0.7617689
16 *11:16 0.09063243
17 *11:17 0.1936866
18 *11:18 0.1331787
19 *11:19 0.02701259
20 *11:20 0.07358046
21 *11:21 0.2483437
22 *11:22 0.2165368
23 *11:23 0.2165368
24 *11:24 0.6857784
25 *11:25 0.2668243
26 *11:26 0.3623736
27 *11:27 0.1621332
28 *11:28 0.3623736
29 *11:29 0.03776354
30 *11:30 0.1128869
31 *11:31 0.1702412
32 *11:32 0.1582453
33 *11:33 0.4343183
34 *11:34 0.4938422
35 *11:35 0.2692148
36 *11:36 0.4938422
37 *11:37 0.1588599
38 *11:38 0.8541812
39 *11:39 0.05815798
40 *11:40 0.5671618
41 *11:41 0.1241938
42 *11:42 0.5607724
43 *11:43 0.1241938
44 *11:44 0.4962444
45 *11:45 0.2927673
46 *11:46 0.01573457
47 *11:47 0.4415055
48 *11:48 0.2457597
49 *11:49 0.07007089
50 *11:50 0.795751
51 *11:51 0.1292568
52 *11:52 0.3802041
53 *11:53 0.3857672
54 *11:54 0.02805704
55 *11:55 0.06487082

*RES
1 *11:10 *11:11 0.45
2 *11:12 *11:13 0.45
3 *11:14 *11:15 0.45
4 *11:16 *11:14 0.45
5 *11:17 *11:16 0.45
6 *11:18 *11:19 0.45
7 *11:19 *11:20 0.45
8 *11:20 *11:21 0.45
9 *11:22 *25:SE 0.45
10 *11:23 *11:24 0.45
11 *11:25 *11:26 0.45
12 *11:27 *11:28 0.45
13 *11:29 *26:SE 0.9
14 *11:30 *23:SE 0.9
15 *11:31 *11:32 0.45
16 *11:33 *11:34 0.45
17 *11:35 *11:36 0.45
18 *11:37 *11:38 0.45
19 *11:39 *17:SE 0.9
20 *11:40 *24:SE 0.9
21 *11:41 *11:42 0.45
22 *11:43 *11:44 0.45
23 *11:45 *22:SE 0.45
24 *11:46 *21:SE 0.9
25 *11:47 *19:SE 0.45
26 *11:32 *11:38 1.819286
27 *11:38 *11:24 7.797859
28 *11:11 *11:13 4.680001
29 *11:26 *11:28 4.062858
30 *11:36 *11:34 5.760002
31 *11:29 *11:48 0.135
32 *11:48 *11:49 0.225
33 *11:15 *11:50 6.5925
34 *11:50 *11:51 0.18
35 *11:52 *11:53 2.64375
36 *11:52 *11:54 0.135
37 *11:54 *11:30 0.09000001
38 *11:53 *11:55 0.18
39 *11:48 *11:31 1.3275
40 *11:51 *11:30 1.36125
41 *11:55 *11:49 0.63
42 *11:37 *11 1.485
43 *11:21 *11:46 0.05625001
44 *11:21 *11:10 0.945
45 *11:25 *11:12 2.272501
46 *11:12 *11:45 2.0925
47 *11:22 *11:23 1.305
48 *11:27 *11:47 1.1925
49 *11:47 *11:35 1.6875
50 *11:33 *11:44 2.728125
51 *11:44 *11:39 0.331875
52 *11:42 *11:40 3.72375
53 *11:43 *11:41 0.225
54 *11:17 *11:18 1.755

*END

*D_NET *5 4.797938

*CONN
*I *19:D I *L 1419.717 *C 21.025 5.16
*I *26:Q O *L 0.0 *D SDFFARX1 *C 14.6 24.68
*P *5 O *C 16.2 30.72
*N *5:4 *C 14.6 24.68
*N *5:5 *C 14.6 27.73
*N *5:6 *C 14.6 27.73
*N *5:7 *C 14.6 27.73
*N *5:8 *C 14.75 27.88
*N *5:9 *C 15.73 27.88
*N *5:10 *C 15.73 27.88
*N *5:11 *C 15.73 27.88
*N *5:12 *C 15.73 27.88
*N *5:13 *C 16.03 28.52
*N *5:14 *C 16.03 28.52
*N *5:15 *C 21.49 28.52
*N *5:16 *C 21.49 28.52
*N *5:17 *C 21.025 5.16
*N *5:18 *C 15.88 30.72
*N *5:19 *C 21.64 5.16
*N *5:20 *C 21.64 8.36
*N *5:21 *C 21.96 8.36
*N *5:22 *C 21.64 17.64
*N *5:23 *C 21.96 17.64

*CAP
1 *19:D 0.0
2 *26:Q 0.0
3 *5 0.008759455
4 *5:4 0.1968036
5 *5:5 0.03458241
6 *5:6 0.195493
7 *5:7 0.1011536
8 *5:8 0.1313129
9 *5:9 0.06443721
10 *5:10 0.02727077
11 *5:11 0.07265072
12 *5:12 0.1096618
13 *5:13 0.2203174
14 *5:14 0.3353544
15 *5:15 0.5859377
16 *5:16 0.3353544
17 *5:17 0.07752966
18 *5:18 0.1630494
19 *5:19 0.3181585
20 *5:20 0.2527563
21 *5:21 0.4627016
22 *5:22 0.6301659
23 *5:23 0.4744872

*RES
1 *5:4 *26:Q 0.45
2 *5:5 *5:6 0.45
3 *5:7 *5:5 0.45
4 *5:8 *5:7 0.45
5 *5:9 *5:10 0.45
6 *5:10 *5:11 0.45
7 *5:11 *5:12 0.45
8 *5:13 *5:14 0.45
9 *5:15 *5:16 0.45
10 *5:17 *19:D 0.45
11 *5:14 *5:16 3.857144
12 *5:4 *5:6 1.738125
13 *5:12 *5:13 0.2925
14 *5:13 *5:18 1.2825
15 *5:18 *5 0.09000001
16 *5:17 *5:19 0.2615625
17 *5:19 *5:20 1.8
18 *5:20 *5:21 0.18
19 *5:22 *5:23 0.27
20 *5:22 *5:15 6.0075
21 *5:21 *5:23 5.130001
22 *5:8 *5:9 0.8550001

*END

*D_NET *3 2.337322

*CONN
*I *21:Q O *L 0.0 *D SDFFARX1 *C 17.8 6.12
*I *22:D I *L 1419.717 *C 12.955 10.92
*P *3 O *C 16.2 0.08
*N *3:4 *C 12.955 10.92
*N *3:5 *C 13.15 2.6
*N *3:6 *C 13.15 2.6
*N *3:7 *C 16.05 2.6
*N *3:8 *C 16.05 2.6
*N *3:9 *C 17.8 6.12
*N *3:10 *C 17.8 2.6

*CAP
1 *21:Q 0.0
2 *22:D 0.0
3 *3 0.1182109
4 *3:4 0.5189448
5 *3:5 0.5189448
6 *3:6 0.1976608
7 *3:7 0.2100259
8 *3:8 0.1976608
9 *3:9 0.2369509
10 *3:10 0.3389235

*RES
1 *3:4 *22:D 0.45
2 *3:5 *3:6 0.45
3 *3:7 *3:8 0.45
4 *3:9 *21:Q 0.9
5 *3:6 *3:8 2.211429
6 *3:5 *3:4 4.545001
7 *3 *3:7 1.36125
8 *3:7 *3:10 0.9450002
9 *3:10 *3:9 1.89

*END

*D_NET *2 4.378376

*CONN
*I *22:Q O *L 0.0 *D SDFFARX1 *C 3.08 11.88
*I *23:D I *L 1419.717 *C 5.64 19.88
*P *2 O *C 1.8 0.08
*N *2:4 *C 1.97 3.56
*N *2:5 *C 1.97 3.56
*N *2:6 *C 5.79 3.56
*N *2:7 *C 5.79 3.56
*N *2:8 *C 5.64 19.88
*N *2:9 *C 3.08 11.88
*N *2:10 *C 1.8 3.56
*N *2:11 *C 2.12 3.56
*N *2:12 *C 2.12 11.88

*CAP
1 *22:Q 0.0
2 *23:D 0.0
3 *2 0.1564207
4 *2:4 0.5955898
5 *2:5 0.3871401
6 *2:6 1.122516
7 *2:7 0.3871401
8 *2:8 1.127595
9 *2:9 0.07124524
10 *2:10 0.01087803
11 *2:11 0.00880997
12 *2:12 0.5110414

*RES
1 *2:4 *2:5 0.45
2 *2:6 *2:7 0.45
3 *2:8 *23:D 0.9
4 *2:9 *22:Q 0.45
5 *2:5 *2:7 2.802858
6 *2 *2:4 1.90125
7 *2:4 *2:10 0.04500001
8 *2:4 *2:11 0.04500001
9 *2:4 *2:12 4.657499
10 *2:12 *2:9 0.4275
11 *2:6 *2:8 9.180001

*END

*D_NET *1 5.181638

*CONN
*I *23:Q O *L 0.0 *D SDFFARX1 *C 15.56 18.92
*I *24:D I *L 1419.717 *C 28.68 19.88
*P *1 O *C 32.52 28.69
*N *1:4 *C 15.56 18.92
*N *1:5 *C 15.71 17.64
*N *1:6 *C 15.71 17.64
*N *1:7 *C 20.36 17.49
*N *1:8 *C 20.36 17.49
*N *1:9 *C 20.36 14.29
*N *1:10 *C 20.36 14.29
*N *1:11 *C 20.36 14.44
*N *1:12 *C 20.51 14.44
*N *1:13 *C 23.09 14.44
*N *1:14 *C 23.09 14.44
*N *1:15 *C 23.09 14.44
*N *1:16 *C 23.09 14.44
*N *1:17 *C 23.39 17.64
*N *1:18 *C 23.39 17.64
*N *1:19 *C 32.37 17.64
*N *1:20 *C 32.37 17.64
*N *1:21 *C 32.52 28.69
*N *1:22 *C 28.68 19.88
*N *1:23 *C 28.68 17.64
*N *1:24 *C 28.68 17.64

*CAP
1 *23:Q 0.0
2 *24:D 0.0
3 *1 0.01755272
4 *1:4 0.1344587
5 *1:5 0.1344587
6 *1:6 0.3442016
7 *1:7 0.2764755
8 *1:8 0.3442016
9 *1:9 0.04446868
10 *1:10 0.2751648
11 *1:11 0.08388919
12 *1:12 0.1733025
13 *1:13 0.1335775
14 *1:14 0.02592214
15 *1:15 0.07155275
16 *1:16 0.2937518
17 *1:17 0.2498668
18 *1:18 0.3296297
19 *1:19 0.5168613
20 *1:20 0.2092745
21 *1:21 0.5445716
22 *1:22 0.2096185
23 *1:23 0.2096185
24 *1:24 0.5592192

*RES
1 *1:4 *23:Q 0.45
2 *1:5 *1:6 0.45
3 *1:7 *1:8 0.45
4 *1:9 *1:10 0.45
5 *1:11 *1:9 0.45
6 *1:12 *1:11 0.45
7 *1:13 *1:14 0.45
8 *1:14 *1:15 0.45
9 *1:15 *1:16 0.45
10 *1:17 *1:18 0.45
11 *1:19 *1:20 0.45
12 *1 *1:21 0.45
13 *1:22 *24:D 0.9
14 *1:23 *1:24 0.9
15 *1:6 *1:8 3.085715
16 *1:18 *1:24 3.574286
17 *1:24 *1:20 2.545715
18 *1:5 *1:4 0.5231251
19 *1:10 *1:7 2.10375
20 *1:16 *1:17 1.665
21 *1:23 *1:22 1.2825
22 *1:19 *1:21 6.3
23 *1:12 *1:13 1.755

*END

*D_NET *29 1.179246

*CONN
*I *24:QN O *L 0.0 *D SDFFARX1 *C 19.4 18.92
*I *20:INP I *L 3455.273 *C 20.04 11.24
*N *29:3 *C 19.4 18.92
*N *29:4 *C 20.04 11.24
*N *29:5 *C 19.4 16.04
*N *29:6 *C 20.04 16.04

*CAP
1 *24:QN 0.0
2 *20:INP 0.0
3 *29:3 0.187901
4 *29:4 0.3577421
5 *29:5 0.2318807
6 *29:6 0.4017217

*RES
1 *29:3 *24:QN 0.9
2 *29:4 *20:INP 0.9
3 *29:5 *29:3 1.62
4 *29:5 *29:6 0.36
5 *29:4 *29:6 2.61

*END

*D_NET *15 4.119469

*CONN
*I *24:Q O *L 0.0 *D SDFFARX1 *C 18.76 18.92
*I *25:D I *L 1419.717 *C 19.72 25.64
*P *15 O *C 32.64 15.4
*N *15:4 *C 32.2 15.4
*N *15:5 *C 32.2 15.4
*N *15:6 *C 32.16 15.72
*N *15:7 *C 32.16 15.72
*N *15:8 *C 24.84 15.72
*N *15:9 *C 24.84 15.72
*N *15:10 *C 24.8 22.76
*N *15:11 *C 24.8 22.76
*N *15:12 *C 18.76 18.92
*N *15:13 *C 18.91 22.76
*N *15:14 *C 18.91 22.76
*N *15:15 *C 19.72 25.64
*N *15:16 *C 19.76 23.4
*N *15:17 *C 19.76 23.4
*N *15:18 *C 19.72 22.76
*N *15:19 *C 19.72 25.0
*N *15:20 *C 20.04 25.0
*N *15:21 *C 20.04 23.4

*CAP
1 *24:Q 0.0
2 *25:D 0.0
3 *15 0.02524593
4 *15:4 0.01951186
5 *15:5 0.03189396
6 *15:6 0.03762803
7 *15:7 0.5968966
8 *15:8 0.5269915
9 *15:9 0.5968966
10 *15:10 0.5269915
11 *15:11 0.2835466
12 *15:12 0.2494118
13 *15:13 0.2494118
14 *15:14 0.05020951
15 *15:15 0.05431765
16 *15:16 0.03886218
17 *15:17 0.06041301
18 *15:18 0.4043266
19 *15:19 0.07541673
20 *15:20 0.1368668
21 *15:21 0.1546299

*RES
1 *15:4 *15:5 0.9
2 *15:6 *15:7 0.9
3 *15:8 *15:9 0.9
4 *15:10 *15:11 0.9
5 *15:12 *24:Q 0.45
6 *15:13 *15:14 0.45
7 *15:15 *25:D 0.9
8 *15:16 *15:17 0.9
9 *15:14 *15:18 0.6942859
10 *15:18 *15:11 3.342858
11 *15:18 *15:17 0.3150001
12 *15:9 *15:7 4.860001
13 *15:12 *15:13 1.963125
14 *15:19 *15:15 0.4725
15 *15:19 *15:20 0.18
16 *15:16 *15:21 0.27
17 *15:21 *15:20 0.81
18 *15:8 *15:10 3.87
19 *15:5 *15:6 0.2025
20 *15:4 *15 0.27

*END

*D_NET *30 0.3851158

*CONN
*I *25:QN O *L 0.0 *D SDFFARX1 *C 29.0 24.68
*I *31:INP I *L 3455.273 *C 29.0 22.76
*N *30:3 *C 29.0 24.68
*N *30:4 *C 29.0 22.76

*CAP
1 *25:QN 0.0
2 *31:INP 0.0
3 *30:3 0.1900185
4 *30:4 0.1950973

*RES
1 *30:3 *25:QN 0.45
2 *30:4 *31:INP 0.9
3 *30:4 *30:3 1.299375

*END

*D_NET *14 4.908971

*CONN
*I *25:Q O *L 0.0 *D SDFFARX1 *C 29.44 24.68
*I *17:D I *L 1419.717 *C 27.995 14.12
*P *14 O *C 32.64 1.96
*N *14:4 *C 29.44 24.68
*N *14:5 *C 32.2 1.96
*N *14:6 *C 32.2 1.96
*N *14:7 *C 32.16 2.92
*N *14:8 *C 32.16 2.92
*N *14:9 *C 29.36 2.92
*N *14:10 *C 29.36 2.92
*N *14:11 *C 27.995 14.12
*N *14:12 *C 28.04 14.12
*N *14:13 *C 28.04 14.12
*N *14:14 *C 28.19 14.12
*N *14:15 *C 29.17 14.12
*N *14:16 *C 29.17 14.12
*N *14:17 *C 29.17 14.12
*N *14:18 *C 29.32 13.97

*CAP
1 *25:Q 0.0
2 *17:D 0.0
3 *14 0.02569113
4 *14:4 1.052659
5 *14:5 0.01995705
6 *14:6 0.06184533
7 *14:7 0.0675794
8 *14:8 0.1605894
9 *14:9 0.846029
10 *14:10 0.1605894
11 *14:11 0.05515585
12 *14:12 0.1007696
13 *14:13 0.08543774
14 *14:14 0.1171687
15 *14:15 0.06557206
16 *14:16 0.02443576
17 *14:17 0.09649255
18 *14:18 1.968999

*RES
1 *14:4 *25:Q 0.45
2 *14:5 *14:6 0.9
3 *14:7 *14:8 0.9
4 *14:9 *14:10 0.9
5 *14:11 *17:D 0.45
6 *14:12 *14:11 0.45
7 *14:13 *14:12 0.45
8 *14:14 *14:13 0.45
9 *14:15 *14:16 0.45
10 *14:16 *14:17 0.45
11 *14:17 *14:18 0.45
12 *14:10 *14:8 1.954286
13 *14:9 *14:18 6.170625
14 *14:18 *14:4 5.982188
15 *14:6 *14:7 0.5625001
16 *14:5 *14 0.27
17 *14:14 *14:15 0.8550001

*END

*D_NET *12 1.356776

*CONN
*I *25:SI I *L 1828.496 *C 19.4 24.68
*P *12 I *C 21.32 30.72
*N *12:3 *C 20.36 26.6
*N *12:4 *C 20.36 26.6
*N *12:5 *C 20.04 26.6
*N *12:6 *C 20.04 26.6
*N *12:7 *C 19.08 26.56
*N *12:8 *C 19.08 26.56
*N *12:9 *C 19.08 26.28
*N *12:10 *C 19.08 26.28
*N *12:11 *C 19.4 24.68
*N *12:12 *C 19.08 25.96
*N *12:13 *C 19.4 25.96
*N *12:14 *C 21.0 26.6
*N *12:15 *C 21.0 30.64

*CAP
1 *25:SI 0.02413648
2 *12 0.007728304
3 *12:3 0.05107178
4 *12:4 0.07017302
5 *12:5 0.08271693
6 *12:6 0.0508543
7 *12:7 0.08271693
8 *12:8 0.04732493
9 *12:9 0.04754242
10 *12:10 0.03302732
11 *12:11 0.1316195
12 *12:12 0.07121418
13 *12:13 0.1399359
14 *12:14 0.2924467
15 *12:15 0.2242679

*RES
1 *12:3 *12:4 0.9
2 *12:5 *12:6 0.9
3 *12:7 *12:8 0.9
4 *12:9 *12:10 0.9
5 *12:11 *25:SI 0.9
6 *12:12 *12:13 0.27
7 *12:12 *12:10 0.2025
8 *12:11 *12:13 0.63
9 *12:4 *12:14 0.36
10 *12:14 *12:15 2.2725
11 *12:15 *12 0.09000001
12 *12:9 *12:8 0.18
13 *12:6 *12:3 0.2025
14 *12:7 *12:5 0.59625

*END

*D_NET *32 1.684729

*CONN
*I *17:QN O *L 0.0 *D SDFFARX1 *C 18.61 14.09
*I *33:INP I *L 3455.273 *C 11.72 17.0
*N *32:3 *C 18.76 14.12
*N *32:4 *C 18.76 14.12
*N *32:5 *C 18.72 16.68
*N *32:6 *C 18.72 16.68
*N *32:7 *C 13.32 16.68
*N *32:8 *C 13.32 16.68
*N *32:9 *C 13.0 16.68
*N *32:10 *C 13.0 16.68
*N *32:11 *C 12.36 16.68
*N *32:12 *C 12.36 16.68
*N *32:13 *C 11.72 17.0
*N *32:14 *C 11.72 16.68

*CAP
1 *17:QN 0.01626224
2 *33:INP 0.0
3 *32:3 0.1824406
4 *32:4 0.01118348
5 *32:5 0.1875194
6 *32:6 0.4078703
7 *32:7 0.06166106
8 *32:8 0.4078703
9 *32:9 0.06115269
10 *32:10 0.055927
11 *32:11 0.06115269
12 *32:12 0.07235057
13 *32:13 0.0406268
14 *32:14 0.1187114

*RES
1 *17:QN *32:4 0.06000001
2 *32:3 *32:4 0.9
3 *32:5 *32:6 0.9
4 *32:7 *32:8 0.9
5 *32:9 *32:10 0.9
6 *32:11 *32:12 0.9
7 *32:13 *33:INP 0.9
8 *32:8 *32:6 3.625715
9 *32:14 *32:12 0.36
10 *32:14 *32:13 0.09000001
11 *32:10 *32:7 0.2025
12 *32:3 *32:5 1.35
13 *32:11 *32:9 0.495

*END

*D_NET *9 0.8180195

*CONN
*I *28:INP I *L 1863.017 *C 6.352 14.107
*P *9 I *C 0.08 15.4
*N *9:3 *C 0.52 15.4
*N *9:4 *C 0.52 15.4
*N *9:5 *C 0.56 14.12
*N *9:6 *C 0.56 14.12
*N *9:7 *C 0.52 14.12

*CAP
1 *28:INP 0.2919335
2 *9 0.03594562
3 *9:3 0.03021155
4 *9:4 0.07013129
5 *9:5 0.01099936
6 *9:6 0.2919335
7 *9:7 0.08686471

*RES
1 *9:3 *9:4 0.9
2 *9:5 *9:6 0.9
3 *9:6 *28:INP 3.677144
4 *9:5 *9:7 0.04500001
5 *9:7 *9:4 0.8324999
6 *9 *9:3 0.27

*END

*D_NET *34 0.8722701

*CONN
*I *35:INP I *L 3455.273 *C 3.58 16.85
*I *22:QN O *L 0.0 *D SDFFARX1 *C 3.68 11.88
*N *34:3 *C 3.68 11.88
*N *34:4 *C 3.58 16.85

*CAP
1 *35:INP 0.0
2 *22:QN 0.0
3 *34:3 0.4361351
4 *34:4 0.4361351

*RES
1 *34:3 *22:QN 0.45
2 *34:4 *35:INP 0.45
3 *34:3 *34:4 2.624063

*END

*D_NET *8 0.8826777

*CONN
*I *16:Z O *L 0.0 *D DELLN1X2 *C 2.37 7.722
*P *8 O *C 0.2 1.96
*N *8:3 *C 0.2 1.96
*N *8:4 *C 0.24 8.36
*N *8:5 *C 0.24 8.36

*CAP
1 *16:Z 0.08188967
2 *8 0.01603594
3 *8:3 0.3594491
4 *8:4 0.3434132
5 *8:5 0.08188967

*RES
1 *8 *8:3 0.9
2 *8:4 *8:5 0.9
3 *8:5 *16:Z 1.036286
4 *8:3 *8:4 3.6225

*END

*D_NET *36 1.613821

*CONN
*I *23:QN O *L 0.0 *D SDFFARX1 *C 15.06 18.92
*I *37:INP I *L 3455.273 *C 21.64 17.0
*N *36:3 *C 15.06 18.92
*N *36:4 *C 14.75 17.0
*N *36:5 *C 14.75 17.0
*N *36:6 *C 20.68 17.0
*N *36:7 *C 20.68 17.0
*N *36:8 *C 21.64 17.0
*N *36:9 *C 14.6 18.92

*CAP
1 *23:QN 0.0
2 *37:INP 0.0
3 *36:3 0.04237318
4 *36:4 0.1435918
5 *36:5 0.481903
6 *36:6 0.1238061
7 *36:7 0.4920606
8 *36:8 0.1238061
9 *36:9 0.20628

*RES
1 *36:3 *23:QN 0.45
2 *36:4 *36:5 0.45
3 *36:6 *36:7 0.9
4 *36:8 *37:INP 0.9
5 *36:5 *36:7 3.934287
6 *36:4 *36:9 1.0575
7 *36:9 *36:3 0.14625
8 *36:6 *36:8 0.45

*END

*D_NET *38 1.146855

*CONN
*I *26:QN O *L 0.0 *D SDFFARX1 *C 13.96 24.68
*I *39:INP I *L 3455.273 *C 9.48 22.76
*N *38:3 *C 13.96 24.68
*N *38:4 *C 13.81 23.4
*N *38:5 *C 13.81 23.4
*N *38:6 *C 10.27 23.4
*N *38:7 *C 10.27 23.4
*N *38:8 *C 9.97 22.76
*N *38:9 *C 9.97 22.76
*N *38:10 *C 9.48 22.76
*N *38:11 *C 9.48 22.76

*CAP
1 *26:QN 0.0
2 *39:INP 0.03130447
3 *38:3 0.1324413
4 *38:4 0.1324413
5 *38:5 0.2226723
6 *38:6 0.1039405
7 *38:7 0.2226723
8 *38:8 0.08372404
9 *38:9 0.1026299
10 *38:10 0.08372404
11 *38:11 0.03130447

*RES
1 *38:3 *26:QN 0.45
2 *38:4 *38:5 0.45
3 *38:6 *38:7 0.45
4 *38:8 *38:9 0.45
5 *38:10 *38:11 0.45
6 *38:11 *39:INP 0.9
7 *38:7 *38:5 2.622858
8 *38:9 *38:6 0.225
9 *38:4 *38:3 0.5850001
10 *38:10 *38:8 0.36

*END

*D_NET *40 1.275171

*CONN
*I *21:QN O *L 0.0 *D SDFFARX1 *C 17.31 5.19
*I *41:INP I *L 3455.273 *C 14.565 8.04
*N *40:3 *C 14.565 8.04
*N *40:4 *C 17.16 5.16
*N *40:5 *C 17.16 5.16
*N *40:6 *C 14.6 3.56
*N *40:7 *C 15.88 3.56
*N *40:8 *C 15.88 3.24
*N *40:9 *C 17.16 3.24

*CAP
1 *21:QN 0.01850162
2 *41:INP 0.0
3 *40:3 0.2972573
4 *40:4 0.1290708
5 *40:5 0.01342285
6 *40:6 0.3968904
7 *40:7 0.09768342
8 *40:8 0.09820154
9 *40:9 0.2241433

*RES
1 *40:3 *41:INP 0.45
2 *21:QN *40:5 0.06000001
3 *40:4 *40:5 0.9
4 *40:6 *40:3 2.4975
5 *40:6 *40:7 0.7200001
6 *40:8 *40:9 0.81
7 *40:8 *40:7 0.09
8 *40:9 *40:4 0.9899999

*END

*D_NET *42 2.225306

*CONN
*I *19:QN O *L 0.0 *D SDFFARX1 *C 30.28 6.12
*I *43:INP I *L 3455.273 *C 17.48 8.04
*N *42:3 *C 30.28 6.12
*N *42:4 *C 29.96 7.4
*N *42:5 *C 29.96 7.4
*N *42:6 *C 19.12 7.4
*N *42:7 *C 19.12 7.4
*N *42:8 *C 17.48 8.04
*N *42:9 *C 19.08 8.04
*N *42:10 *C 29.64 6.12
*N *42:11 *C 29.64 7.4

*CAP
1 *19:QN 0.0
2 *43:INP 0.0
3 *42:3 0.06378017
4 *42:4 0.02716484
5 *42:5 0.7409151
6 *42:6 0.05535244
7 *42:7 0.7409151
8 *42:8 0.1151655
9 *42:9 0.1705179
10 *42:10 0.1740552
11 *42:11 0.1374399

*RES
1 *42:3 *19:QN 0.9
2 *42:4 *42:5 0.9
3 *42:6 *42:7 0.9
4 *42:8 *43:INP 0.9
5 *42:7 *42:5 7.122859
6 *42:8 *42:9 1.0125
7 *42:6 *42:9 0.27
8 *42:10 *42:3 0.4725001
9 *42:10 *42:11 0.72
10 *42:11 *42:4 0.2025

*END

*D_NET *44 1.623473

*CONN
*I *17:SI I *L 1828.496 *C 28.53 13.16
*I *37:Z O *L 0.0 *D NBUFFX2 *C 21.997 17.632
*N *44:3 *C 28.53 13.16
*N *44:4 *C 28.85 17.0
*N *44:5 *C 28.85 17.0
*N *44:6 *C 28.68 14.76
*N *44:7 *C 29.0 14.76

*CAP
1 *17:SI 0.0
2 *37:Z 0.373508
3 *44:3 0.169756
4 *44:4 0.2408412
5 *44:5 0.3633505
6 *44:6 0.2024661
7 *44:7 0.2735513

*RES
1 *44:3 *17:SI 0.45
2 *44:4 *44:5 0.45
3 *37:Z *44:5 4.387501
4 *44:3 *44:6 0.8775001
5 *44:6 *44:7 0.18
6 *44:7 *44:4 1.1475

*END

*D_NET *45 2.97519

*CONN
*I *26:D I *L 1419.717 *C 4.68 25.64
*I *33:Z O *L 0.0 *D NBUFFX2 *C 11.44 17.79
*N *45:3 *C 11.44 17.79
*N *45:4 *C 10.93 28.52
*N *45:5 *C 10.93 28.52
*N *45:6 *C 5.15 28.52
*N *45:7 *C 5.15 28.52
*N *45:8 *C 4.68 25.64
*N *45:9 *C 4.68 25.96
*N *45:10 *C 5.32 25.96
*N *45:11 *C 11.08 17.64

*CAP
1 *26:D 0.0
2 *33:Z 0.04804555
3 *45:3 0.1002967
4 *45:4 0.7983688
5 *45:5 0.3316266
6 *45:6 0.1729162
7 *45:7 0.3316266
8 *45:8 0.03379473
9 *45:9 0.07422932
10 *45:10 0.2235083
11 *45:11 0.8607774

*RES
1 *45:3 *33:Z 0.45
2 *45:4 *45:5 0.45
3 *45:6 *45:7 0.45
4 *45:8 *26:D 0.9
5 *45:7 *45:5 4.062858
6 *45:8 *45:9 0.2925
7 *45:9 *45:10 0.36
8 *45:10 *45:6 1.38375
9 *45:11 *45:4 6.0975
10 *45:11 *45:3 0.09000001

*END

*D_NET *46 1.304107

*CONN
*I *26:SI I *L 1828.496 *C 4.04 24.68
*I *35:Z O *L 0.0 *D NBUFFX2 *C 4.04 17.64
*N *46:3 *C 4.04 24.68
*N *46:4 *C 4.04 17.64
*N *46:5 *C 3.72 17.64
*N *46:6 *C 3.72 24.68

*CAP
1 *26:SI 0.0
2 *35:Z 0.0
3 *46:3 0.03886747
4 *46:4 0.06786152
5 *46:5 0.6131861
6 *46:6 0.584192

*RES
1 *46:3 *26:SI 0.9
2 *46:4 *35:Z 0.9
3 *46:5 *46:4 0.18
4 *46:5 *46:6 3.96
5 *46:6 *46:3 0.09000001

*END

*D_NET *47 0.7853536

*CONN
*I *24:SI I *L 1828.496 *C 29.0 18.825
*I *31:Z O *L 0.0 *D NBUFFX2 *C 28.545 21.865
*N *47:3 *C 29.0 18.825
*N *47:4 *C 28.545 21.865
*N *47:5 *C 29.0 21.75

*CAP
1 *24:SI 0.03556863
2 *31:Z 0.0